/*--------------------------------*- C++ -*----------------------------------*\
| =========                 |                                                 |
| \\      /  F ield         | OpenFOAM: The Open Source CFD Toolbox           |
|  \\    /   O peration     | Version:  v1912                                 |
|   \\  /    A nd           | Website:  www.openfoam.com                      |
|    \\/     M anipulation  |                                                 |
\*---------------------------------------------------------------------------*/
FoamFile
{
    version     2.0;
    format      ascii;
    class       volVectorField;
    object      U;
}
// * * * * * * * * * * * * * * * * * * * * * * * * * * * * * * * * * * * * * //

dimensions      [0 1 -1 0 0 0 0];

internalField   uniform (0 0 0);

boundaryField
{
    movingWall
    {
        type            movingWallVelocity;
        value           $internalField;
    }

    farFieldMoving
    {
        type            noSlip;
    }

    right
    {
        type            pressureInletOutletVelocity;
        value           $internalField;
    }

    axis
    {
	type            symmetryPlane;
    }

    left
    {
        type            pressureInletOutletVelocity;
        value           $internalField;
    }

    farField
    {
        type            noSlip;
    }

    back
    {
        type            empty;
    }

    front
    {
        type            empty;
    }
}

// ************************************************************************* //
