/*--------------------------------*- C++ -*----------------------------------*\
| =========                 |                                                 |
| \\      /  F ield         | OpenFOAM: The Open Source CFD Toolbox           |
|  \\    /   O peration     | Version:  v1912                                 |
|   \\  /    A nd           | Website:  www.openfoam.com                      |
|    \\/     M anipulation  |                                                 |
\*---------------------------------------------------------------------------*/
FoamFile
{
    version     2.0;
    format      binary;
    class       polyBoundaryMesh;
    arch        "LSB;label=32;scalar=64";
    location    "constant/polyMesh";
    object      boundary;
}
// * * * * * * * * * * * * * * * * * * * * * * * * * * * * * * * * * * * * * //

8
(
    movingWall
    {
        type            wall;
        inGroups        1(wall);
        nFaces          50;
        startFace       15820;
    }
    farFieldMoving
    {
        type            patch;
        nFaces          50;
        startFace       15870;
    }
    right
    {
        type            wall;
        inGroups        1(wall);
        nFaces          100;
        startFace       15920;
    }
    axis
    {
        type            symmetryPlane;
        inGroups        1(symmetryPlane);
        nFaces          30;
        startFace       16020;
    }
    left
    {
        type            patch;
        nFaces          100;
        startFace       16050;
    }
    farField
    {
        type            patch;
        nFaces          30;
        startFace       16150;
    }
    back
    {
        type            empty;
        inGroups        1(empty);
        nFaces          8000;
        startFace       16180;
    }
    front
    {
        type            empty;
        inGroups        1(empty);
        nFaces          8000;
        startFace       24180;
    }
)

// ************************************************************************* //
