/*--------------------------------*- C++ -*----------------------------------*\
| =========                 |                                                 |
| \\      /  F ield         | OpenFOAM: The Open Source CFD Toolbox           |
|  \\    /   O peration     | Version:  v1912                                 |
|   \\  /    A nd           | Website:  www.openfoam.com                      |
|    \\/     M anipulation  |                                                 |
\*---------------------------------------------------------------------------*/
FoamFile
{
    version     2.0;
    format      binary;
    class       polyBoundaryMesh;
    arch        "LSB;label=32;scalar=64";
    location    "constant/polyMesh";
    object      boundary;
}
// * * * * * * * * * * * * * * * * * * * * * * * * * * * * * * * * * * * * * //

8
(
    movingWall
    {
        type            wall;
        inGroups        1(wall);
        nFaces          60;
        startFace       4185;
    }
    farFieldMoving
    {
        type            patch;
        nFaces          50;
        startFace       4245;
    }
    fixedWall
    {
        type            wall;
        inGroups        1(wall);
        nFaces          30;
        startFace       4295;
    }
    axis
    {
        type            symmetryPlane;
        inGroups        1(symmetryPlane);
        nFaces          30;
        startFace       4325;
    }
    left
    {
        type            patch;
        nFaces          30;
        startFace       4355;
    }
    farField
    {
        type            patch;
        nFaces          30;
        startFace       4385;
    }
    back
    {
        type            empty;
        inGroups        1(empty);
        nFaces          2150;
        startFace       4415;
    }
    front
    {
        type            empty;
        inGroups        1(empty);
        nFaces          2150;
        startFace       6565;
    }
)

// ************************************************************************* //
